* LED: Chip LED 0603 LG Q396
* (c) 2023, OSRAM Opto Semiconductors GmbH. All rights reserved.

* Valid for Vf(binning) = 2.01 V and If(binning) = 20.0 mA
* VERSION: 5
.MODEL LG_Q396_typ D
+ IS=1.849358144891181e-26
+ N=1.392919403969873
+ RS=1.507436464210032
+ Tnom=25
+ EG=2.293071262391193
+ XTI=5.0000000000000000
+ TRS1=-0.008325515372370598
+ TRS2=-1.472806356930344e-06
+ mfg=OSRAM_OS

