* LED: Chip LED 0603 LY Q396
* (c) 2023, OSRAM Opto Semiconductors GmbH. All rights reserved.

* Valid for Vf(binning) = 2.03 V and If(binning) = 10.0 mA
* VERSION: 3
.MODEL LY_Q396_typ D
+ IS=3.343039530197093e-23
+ N=1.606131316176144
+ RS=8.348978084861287
+ Tnom=25
+ EG=2.293097289081905
+ XTI=5.0000000000000000
+ TRS1=-0.0021151945799907
+ TRS2=-5.626841435268593e-06
+ mfg=OSRAM_OS

